Test_Network/condensed/network_1/Lines.txt
New Line.LINE126 Bus1=125 Bus2=127 phases=3 Linecode=2c_16 Length=5.9049 Units=m
New Line.LINE135 Bus1=132 Bus2=136 phases=3 Linecode=2c_16 Length=5.7265 Units=m
New Line.LINE165 Bus1=159 Bus2=166 phases=3 Linecode=2c_16 Length=8.2583 Units=m
New Line.LINE172 Bus1=166 Bus2=173 phases=3 Linecode=2c_16 Length=4.0366 Units=m
New Line.LINE173 Bus1=166 Bus2=174 phases=3 Linecode=2c_16 Length=4.0366 Units=m
New Line.LINE1247 Bus1=1241 Bus2=1248 phases=3 Linecode=2c_16 Length=5.3022 Units=m
New Line.LINE1248 Bus1=1241 Bus2=1249 phases=3 Linecode=2c_16 Length=5.3022 Units=m
New Line.LINE1331 Bus1=1325 Bus2=1332 phases=3 Linecode=4c_.06 Length=6.6729 Units=m
New Line.LINE1483 Bus1=1475 Bus2=1484 phases=3 Linecode=2c_16 Length=10.2769 Units=m
New Line.LINE1538 Bus1=1530 Bus2=1539 phases=3 Linecode=2c_16 Length=5.5837 Units=m
New Line.LINE1595 Bus1=1587 Bus2=1596 phases=3 Linecode=4c_.06 Length=0.64238 Units=m
New Line.LINE1689 Bus1=1686 Bus2=1690 phases=3 Linecode=2c_16 Length=8.1445 Units=m
New Line.LINE1690 Bus1=1686 Bus2=1691 phases=3 Linecode=4c_.1 Length=10.5254 Units=m
New Line.LINE1696 Bus1=1691 Bus2=1697 phases=3 Linecode=4c_.1 Length=2.1907 Units=m
New Line.LINE1801 Bus1=1794 Bus2=1802 phases=3 Linecode=4c_95_SAC_XC Length=2.8031 Units=m
New Line.LINE1859 Bus1=1854 Bus2=1860 phases=3 Linecode=2c_16 Length=2.82 Units=m
New Line.LINE1860 Bus1=1854 Bus2=1861 phases=3 Linecode=2c_16 Length=7.5091 Units=m
New Line.LINE1895 Bus1=1891 Bus2=1896 phases=3 Linecode=2c_16 Length=3.2587 Units=m
New Line.LINE1Cmpd_0 Bus1=1373 Bus2=1458 phases=3 Linecode=2c_16 Length=21.23445 Units=m
New Line.LINE1Cmpd_1 Bus1=1707 Bus2=1891 phases=3 Linecode=2c_16 Length=12.748019 Units=m
New Line.LINE1Cmpd_2 Bus1=1651 Bus2=1682 phases=3 Linecode=2c_16 Length=6.02494 Units=m
New Line.LINE1Cmpd_3 Bus1=1739 Bus2=1813 phases=3 Linecode=2c_16 Length=5.756153 Units=m
New Line.LINE1Cmpd_4 Bus1=1484 Bus2=1563 phases=3 Linecode=2c_16 Length=5.54817 Units=m
New Line.LINE1Cmpd_5 Bus1=1884 Bus2=1906 phases=3 Linecode=2c_16 Length=8.09168 Units=m
New Line.LINE1Cmpd_6 Bus1=127 Bus2=170 phases=3 Linecode=2c_16 Length=6.747143 Units=m
New Line.LINE1Cmpd_7 Bus1=1101 Bus2=1114 phases=3 Linecode=4c_70 Length=8.79792 Units=m
New Line.LINE1Cmpd_8 Bus1=1615 Bus2=1666 phases=3 Linecode=4c_.1 Length=2.70115 Units=m
New Line.LINE1Cmpd_9 Bus1=1373 Bus2=1391 phases=3 Linecode=4c_.1 Length=7.37111 Units=m
New Line.LINE1Cmpd_10 Bus1=1263 Bus2=1342 phases=3 Linecode=2c_16 Length=14.96775 Units=m
New Line.LINE1Cmpd_11 Bus1=1391 Bus2=1530 phases=3 Linecode=2c_16 Length=10.680624 Units=m
New Line.LINE1Cmpd_12 Bus1=1336 Bus2=1388 phases=3 Linecode=2c_16 Length=8.52385 Units=m
New Line.LINE1Cmpd_13 Bus1=1697 Bus2=1707 phases=3 Linecode=4c_.06 Length=8.7308 Units=m
New Line.LINE1Cmpd_14 Bus1=1802 Bus2=1839 phases=3 Linecode=4c_.06 Length=13.1431 Units=m
New Line.LINE1Cmpd_15 Bus1=1559 Bus2=1651 phases=3 Linecode=2c_16 Length=13.71347 Units=m
New Line.LINE1Cmpd_16 Bus1=1391 Bus2=1505 phases=3 Linecode=4c_.1 Length=26.309 Units=m
New Line.LINE1Cmpd_17 Bus1=1690 Bus2=1778 phases=3 Linecode=2c_16 Length=7.35786 Units=m
New Line.LINE1Cmpd_18 Bus1=1544 Bus2=1611 phases=3 Linecode=2c_16 Length=6.37701 Units=m
New Line.LINE1Cmpd_19 Bus1=1166 Bus2=1283 phases=3 Linecode=2c_16 Length=10.40682 Units=m
New Line.LINE1Cmpd_20 Bus1=1578 Bus2=1785 phases=3 Linecode=2c_16 Length=15.715408 Units=m
New Line.LINE1Cmpd_21 Bus1=1247 Bus2=1387 phases=3 Linecode=2c_16 Length=14.523658 Units=m
New Line.LINE1Cmpd_22 Bus1=159 Bus2=1101 phases=3 Linecode=4c_70 Length=13.37622 Units=m
New Line.LINE1Cmpd_23 Bus1=1453 Bus2=1629 phases=3 Linecode=2c_16 Length=16.52655 Units=m
New Line.LINE1Cmpd_24 Bus1=1145 Bus2=1166 phases=3 Linecode=4c_.35 Length=16.3325 Units=m
New Line.LINE1Cmpd_25 Bus1=1101 Bus2=1155 phases=3 Linecode=4c_.35 Length=14.67517 Units=m
New Line.LINE1Cmpd_26 Bus1=1127 Bus2=1289 phases=3 Linecode=2c_16 Length=14.34716 Units=m
New Line.LINE1Cmpd_27 Bus1=1615 Bus2=1688 phases=3 Linecode=2c_16 Length=13.76873 Units=m
New Line.LINE1Cmpd_28 Bus1=1839 Bus2=1868 phases=3 Linecode=2c_.0225 Length=10.12454 Units=m
New Line.LINE1Cmpd_29 Bus1=1310 Bus2=1336 phases=3 Linecode=2c_16 Length=7.69863 Units=m
New Line.LINE1Cmpd_30 Bus1=1786 Bus2=1854 phases=3 Linecode=2c_16 Length=2.29182 Units=m
New Line.LINE1Cmpd_31 Bus1=1707 Bus2=1718 phases=3 Linecode=4c_.06 Length=15.2459 Units=m
New Line.LINE1Cmpd_32 Bus1=136 Bus2=183 phases=3 Linecode=2c_16 Length=6.44409 Units=m
New Line.LINE1Cmpd_33 Bus1=1145 Bus2=1261 phases=3 Linecode=2c_16 Length=11.18521 Units=m
New Line.LINE1Cmpd_34 Bus1=1155 Bus2=1178 phases=3 Linecode=2c_16 Length=18.5373 Units=m
New Line.LINE1Cmpd_35 Bus1=1332 Bus2=1406 phases=3 Linecode=2c_16 Length=15.785302 Units=m
New Line.LINE1Cmpd_36 Bus1=1453 Bus2=1475 phases=3 Linecode=4c_.06 Length=13.5743 Units=m
New Line.LINE1Cmpd_37 Bus1=1188 Bus2=1208 phases=3 Linecode=2c_16 Length=6.9136 Units=m
New Line.LINE1Cmpd_38 Bus1=1332 Bus2=1453 phases=3 Linecode=4c_.06 Length=37.66329 Units=m
New Line.LINE1Cmpd_39 Bus1=1283 Bus2=1327 phases=3 Linecode=2c_16 Length=3.324801 Units=m
New Line.LINE1Cmpd_40 Bus1=11 Bus2=125 phases=3 Linecode=4c_70 Length=21.863341 Units=m
New Line.LINE1Cmpd_41 Bus1=1794 Bus2=1884 phases=3 Linecode=2c_16 Length=10.77222 Units=m
New Line.LINE1Cmpd_42 Bus1=1114 Bus2=1127 phases=3 Linecode=4c_.35 Length=4.17271 Units=m
New Line.LINE1Cmpd_43 Bus1=1763 Bus2=1835 phases=3 Linecode=2c_16 Length=5.65812 Units=m
New Line.LINE1Cmpd_44 Bus1=1336 Bus2=1349 phases=3 Linecode=2c_16 Length=5.1973 Units=m
New Line.LINE1Cmpd_45 Bus1=1114 Bus2=1247 phases=3 Linecode=4c_.1 Length=28.18684 Units=m
New Line.LINE1Cmpd_46 Bus1=1325 Bus2=1337 phases=3 Linecode=2c_16 Length=12.7504 Units=m
New Line.LINE1Cmpd_47 Bus1=1508 Bus2=1559 phases=3 Linecode=4c_.06 Length=12.9494 Units=m
New Line.LINE1Cmpd_48 Bus1=1651 Bus2=1676 phases=3 Linecode=2c_16 Length=5.34659 Units=m
New Line.LINE1Cmpd_49 Bus1=1171 Bus2=1188 phases=3 Linecode=2c_16 Length=12.4482 Units=m
New Line.LINE1Cmpd_50 Bus1=1280 Bus2=1373 phases=3 Linecode=4c_.1 Length=7.301714 Units=m
New Line.LINE1Cmpd_51 Bus1=1475 Bus2=1508 phases=3 Linecode=4c_.06 Length=16.05858 Units=m
New Line.LINE1Cmpd_52 Bus1=1155 Bus2=1171 phases=3 Linecode=4c_.35 Length=12.3 Units=m
New Line.LINE1Cmpd_53 Bus1=1505 Bus2=1578 phases=3 Linecode=4c_.1 Length=2.936771 Units=m
New Line.LINE1Cmpd_54 Bus1=1505 Bus2=1522 phases=3 Linecode=2c_16 Length=10.4722 Units=m
New Line.LINE1Cmpd_55 Bus1=1280 Bus2=1310 phases=3 Linecode=4c_.06 Length=8.23019 Units=m
New Line.LINE1Cmpd_56 Bus1=1666 Bus2=1686 phases=3 Linecode=4c_.1 Length=9.62961 Units=m
New Line.LINE1Cmpd_57 Bus1=1188 Bus2=1264 phases=3 Linecode=2c_16 Length=8.2381 Units=m
New Line.LINE1Cmpd_58 Bus1=1261 Bus2=1314 phases=3 Linecode=2c_16 Length=4.80218 Units=m
New Line.LINE1Cmpd_59 Bus1=125 Bus2=132 phases=3 Linecode=4c_70 Length=12.6224 Units=m
New Line.LINE1Cmpd_60 Bus1=1739 Bus2=1755 phases=3 Linecode=2c_16 Length=6.7778 Units=m
New Line.LINE1Cmpd_61 Bus1=1283 Bus2=1320 phases=3 Linecode=2c_16 Length=7.11685 Units=m
New Line.LINE1Cmpd_62 Bus1=1666 Bus2=1786 phases=3 Linecode=2c_16 Length=15.18983 Units=m
New Line.LINE1Cmpd_63 Bus1=1745 Bus2=1763 phases=3 Linecode=2c_16 Length=10.8733 Units=m
New Line.LINE1Cmpd_64 Bus1=1718 Bus2=1739 phases=3 Linecode=2c_16 Length=11.26017 Units=m
New Line.LINE1Cmpd_65 Bus1=1596 Bus2=1619 phases=3 Linecode=2c_16 Length=14.4096 Units=m
New Line.LINE1Cmpd_66 Bus1=1530 Bus2=1556 phases=3 Linecode=2c_16 Length=9.8006 Units=m
New Line.LINE1Cmpd_67 Bus1=136 Bus2=147 phases=3 Linecode=2c_16 Length=6.1526 Units=m
New Line.LINE1Cmpd_68 Bus1=1226 Bus2=1241 phases=3 Linecode=2c_16 Length=13.6223 Units=m
New Line.LINE1Cmpd_69 Bus1=1196 Bus2=1225 phases=3 Linecode=2c_16 Length=18.4592 Units=m
New Line.LINE1Cmpd_70 Bus1=1604 Bus2=1639 phases=3 Linecode=2c_.0225 Length=16.0515 Units=m
New Line.LINE1Cmpd_71 Bus1=1745 Bus2=1794 phases=3 Linecode=4c_.06 Length=19.4603 Units=m
New Line.LINE1Cmpd_72 Bus1=1484 Bus2=1502 phases=3 Linecode=2c_16 Length=6.6786 Units=m
New Line.LINE1Cmpd_73 Bus1=1587 Bus2=1604 phases=3 Linecode=4c_.06 Length=10.2425 Units=m
New Line.LINE1Cmpd_74 Bus1=132 Bus2=159 phases=3 Linecode=4c_70 Length=21.15538 Units=m
New Line.LINE1Cmpd_75 Bus1=1578 Bus2=1594 phases=3 Linecode=4c_.1 Length=4.77453 Units=m
New Line.LINE1Cmpd_76 Bus1=1127 Bus2=1145 phases=3 Linecode=4c_.35 Length=16.0946 Units=m
New Line.LINE1Cmpd_77 Bus1=127 Bus2=134 phases=3 Linecode=2c_16 Length=5.3513 Units=m
New Line.LINE1Cmpd_78 Bus1=1868 Bus2=1886 phases=3 Linecode=2c_.0225 Length=7.50839 Units=m
New Line.LINE1Cmpd_79 Bus1=1786 Bus2=1817 phases=3 Linecode=2c_16 Length=9.7761 Units=m
New Line.LINE1Cmpd_80 Bus1=1718 Bus2=1745 phases=3 Linecode=4c_.06 Length=17.0068 Units=m
New Line.LINE1Cmpd_81 Bus1=1508 Bus2=1544 phases=3 Linecode=2c_16 Length=10.65842 Units=m
New Line.LINE1Cmpd_82 Bus1=1594 Bus2=1615 phases=3 Linecode=4c_.1 Length=9.089 Units=m
New Line.LINE1Cmpd_83 Bus1=1171 Bus2=1196 phases=3 Linecode=4c_.35 Length=14.1361 Units=m
New Line.LINE1Cmpd_84 Bus1=1594 Bus2=1614 phases=3 Linecode=2c_16 Length=14.0043 Units=m
New Line.LINE1Cmpd_85 Bus1=1559 Bus2=1587 phases=3 Linecode=4c_.06 Length=7.30091 Units=m
New Line.LINE1Cmpd_86 Bus1=1247 Bus2=1263 phases=3 Linecode=4c_.1 Length=4.06958 Units=m
New Line.LINE1Cmpd_87 Bus1=1891 Bus2=1900 phases=3 Linecode=2c_16 Length=9.6933 Units=m
New Line.LINE1Cmpd_88 Bus1=1691 Bus2=1702 phases=3 Linecode=2c_16 Length=14.9747 Units=m
New Line.LINE1Cmpd_89 Bus1=1763 Bus2=1780 phases=3 Linecode=2c_16 Length=7.129 Units=m
New Line.LINE1Cmpd_90 Bus1=1261 Bus2=1276 phases=3 Linecode=2c_16 Length=6.8846 Units=m
New Line.LINE1Cmpd_91 Bus1=1884 Bus2=1898 phases=3 Linecode=35_SAC_XSC Length=10.3363 Units=m
New Line.LINE1Cmpd_92 Bus1=1544 Bus2=1562 phases=3 Linecode=2c_16 Length=6.6554 Units=m
New Line.LINE1Cmpd_93 Bus1=1868 Bus2=1899 phases=3 Linecode=2c_.0225 Length=9.33893 Units=m
New Line.LINE1Cmpd_94 Bus1=1310 Bus2=1325 phases=3 Linecode=4c_.06 Length=10.6794 Units=m
New Line.LINE1Cmpd_95 Bus1=1690 Bus2=1701 phases=3 Linecode=2c_16 Length=6.4573 Units=m
New Line.LINE1Cmpd_96 Bus1=1196 Bus2=1226 phases=3 Linecode=4c_.35 Length=7.3714 Units=m
New Line.LINE1Cmpd_97 Bus1=1263 Bus2=1280 phases=3 Linecode=4c_.1 Length=4.9913 Units=m
New Line.LINE2114 Bus1=2109 Bus2=2115 phases=3 Linecode=25_SAC_XC Length=18.6333 Units=m
New Line.LINE2169 Bus1=2165 Bus2=2170 phases=3 Linecode=4c_.06 Length=2.1281 Units=m
New Line.LINE2189 Bus1=2183 Bus2=2190 phases=3 Linecode=4c_.06 Length=4.0245 Units=m
New Line.LINE2209 Bus1=2201 Bus2=2210 phases=3 Linecode=4c_.06 Length=12.6298 Units=m
New Line.LINE2221 Bus1=2211 Bus2=2222 phases=3 Linecode=2c_.0225 Length=5.1057 Units=m
New Line.LINE2222 Bus1=2211 Bus2=2223 phases=3 Linecode=2c_.0225 Length=5.1057 Units=m
New Line.LINE2250 Bus1=2241 Bus2=2251 phases=3 Linecode=2c_.0225 Length=6.7186 Units=m
New Line.LINE2273 Bus1=2263 Bus2=2274 phases=3 Linecode=4c_.06 Length=7.6317 Units=m
New Line.LINE2277 Bus1=2267 Bus2=2278 phases=3 Linecode=2c_.0225 Length=4.4991 Units=m
New Line.LINE2278 Bus1=2267 Bus2=2279 phases=3 Linecode=2c_.0225 Length=4.4991 Units=m
New Line.LINE2318 Bus1=2311 Bus2=2319 phases=3 Linecode=2c_.04 Length=7.9319 Units=m
New Line.LINE2325 Bus1=2319 Bus2=2326 phases=3 Linecode=2c_.04 Length=5.3493 Units=m
New Line.LINE2326 Bus1=2319 Bus2=2327 phases=3 Linecode=2c_.04 Length=5.3493 Units=m
New Line.LINE2350 Bus1=2344 Bus2=2351 phases=3 Linecode=4c_.06 Length=13.1234 Units=m
New Line.LINE2360 Bus1=2354 Bus2=2361 phases=3 Linecode=2c_.0225 Length=1.0967 Units=m
New Line.LINE2361 Bus1=2354 Bus2=2362 phases=3 Linecode=2c_.0225 Length=1.0967 Units=m
New Line.LINE2405 Bus1=2403 Bus2=2406 phases=3 Linecode=2c_.0225 Length=5.2004 Units=m
New Line.LINE2425 Bus1=2421 Bus2=2426 phases=3 Linecode=2c_.0225 Length=5.2133 Units=m
New Line.LINE2454 Bus1=2452 Bus2=2455 phases=3 Linecode=2c_.0225 Length=5.158 Units=m
New Line.LINE2455 Bus1=2452 Bus2=2456 phases=3 Linecode=2c_.0225 Length=5.158 Units=m
New Line.LINE2471 Bus1=2471 Bus2=2472 phases=3 Linecode=4c_.06 Length=2.6474 Units=m
New Line.LINE2Cmpd_0 Bus1=2170 Bus2=2181 phases=3 Linecode=2c_.0225 Length=14.7847 Units=m
New Line.LINE2Cmpd_1 Bus1=2366 Bus2=2452 phases=3 Linecode=2c_.0225 Length=10.305898 Units=m
New Line.LINE2Cmpd_2 Bus1=2100 Bus2=2199 phases=3 Linecode=4c_.06 Length=12.785968 Units=m
New Line.LINE2Cmpd_3 Bus1=2457 Bus2=2469 phases=3 Linecode=2c_.0225 Length=11.26687 Units=m
New Line.LINE2Cmpd_4 Bus1=265 Bus2=2100 phases=3 Linecode=4c_.1 Length=42.60539 Units=m
New Line.LINE2Cmpd_5 Bus1=2251 Bus2=2271 phases=3 Linecode=2c_.0225 Length=5.9651 Units=m
New Line.LINE2Cmpd_6 Bus1=11 Bus2=265 phases=3 Linecode=4c_70 Length=76.306289 Units=m
New Line.LINE2Cmpd_7 Bus1=2190 Bus2=2344 phases=3 Linecode=4c_.06 Length=28.22103 Units=m
New Line.LINE2Cmpd_8 Bus1=2234 Bus2=2354 phases=3 Linecode=2c_.0225 Length=10.7246 Units=m
New Line.LINE2Cmpd_9 Bus1=2217 Bus2=2240 phases=3 Linecode=2c_.0225 Length=13.0289 Units=m
New Line.LINE2Cmpd_10 Bus1=2190 Bus2=2267 phases=3 Linecode=2c_.0225 Length=10.1129 Units=m
New Line.LINE2Cmpd_11 Bus1=2421 Bus2=2457 phases=3 Linecode=4c_.06 Length=16.0484 Units=m
New Line.LINE2Cmpd_12 Bus1=2199 Bus2=2332 phases=3 Linecode=2c_.0225 Length=18.12726 Units=m
New Line.LINE2Cmpd_13 Bus1=265 Bus2=2109 phases=3 Linecode=4c_300_SAC Length=23.33975 Units=m
New Line.LINE2Cmpd_14 Bus1=2274 Bus2=2345 phases=3 Linecode=2c_.0225 Length=14.19401 Units=m
New Line.LINE2Cmpd_15 Bus1=2263 Bus2=2284 phases=3 Linecode=2c_.0225 Length=13.2476 Units=m
New Line.LINE2Cmpd_16 Bus1=2100 Bus2=2143 phases=3 Linecode=4c_.1 Length=18.14295 Units=m
New Line.LINE2Cmpd_17 Bus1=2457 Bus2=2471 phases=3 Linecode=4c_.06 Length=12.646 Units=m
New Line.LINE2Cmpd_18 Bus1=2143 Bus2=2201 phases=3 Linecode=4c_.06 Length=18.50579 Units=m
New Line.LINE2Cmpd_19 Bus1=2311 Bus2=2388 phases=3 Linecode=4c_.06 Length=18.40222 Units=m
New Line.LINE2Cmpd_20 Bus1=2406 Bus2=2443 phases=3 Linecode=2c_.0225 Length=7.05925 Units=m
New Line.LINE2Cmpd_21 Bus1=2165 Bus2=2211 phases=3 Linecode=2c_.0225 Length=10.89 Units=m
New Line.LINE2Cmpd_22 Bus1=2388 Bus2=2403 phases=3 Linecode=4c_.06 Length=12.2146 Units=m
New Line.LINE2Cmpd_23 Bus1=2274 Bus2=2311 phases=3 Linecode=4c_.06 Length=15.5397 Units=m
New Line.LINE2Cmpd_24 Bus1=2199 Bus2=2217 phases=3 Linecode=4c_.06 Length=3.4967 Units=m
New Line.LINE2Cmpd_25 Bus1=2143 Bus2=2165 phases=3 Linecode=4c_.06 Length=11.99209 Units=m
New Line.LINE2Cmpd_26 Bus1=2251 Bus2=2317 phases=3 Linecode=2c_.0225 Length=7.66833 Units=m
New Line.LINE2Cmpd_27 Bus1=2426 Bus2=2461 phases=3 Linecode=2c_.0225 Length=7.355172 Units=m
New Line.LINE2Cmpd_28 Bus1=2388 Bus2=2399 phases=3 Linecode=2c_.0225 Length=10.1249 Units=m
New Line.LINE2Cmpd_29 Bus1=2183 Bus2=2196 phases=3 Linecode=2c_.0225 Length=12.5884 Units=m
New Line.LINE2Cmpd_30 Bus1=2403 Bus2=2421 phases=3 Linecode=4c_.06 Length=14.6645 Units=m
New Line.LINE2Cmpd_31 Bus1=2217 Bus2=2241 phases=3 Linecode=4c_.06 Length=13.9863 Units=m
New Line.LINE2Cmpd_32 Bus1=2471 Bus2=2477 phases=3 Linecode=2c_.0225 Length=11.8922 Units=m
New Line.LINE2Cmpd_33 Bus1=2406 Bus2=2415 phases=3 Linecode=2c_.0225 Length=6.48941 Units=m
New Line.LINE2Cmpd_34 Bus1=2351 Bus2=2366 phases=3 Linecode=4c_.06 Length=5.8788 Units=m
New Line.LINE2Cmpd_35 Bus1=2170 Bus2=2183 phases=3 Linecode=4c_.06 Length=13.1947 Units=m
New Line.LINE2Cmpd_36 Bus1=2210 Bus2=2232 phases=3 Linecode=2c_.0225 Length=11.8998 Units=m
New Line.LINE2Cmpd_37 Bus1=2241 Bus2=2263 phases=3 Linecode=4c_.06 Length=12.4264 Units=m
New Line.LINE2Cmpd_38 Bus1=2210 Bus2=2234 phases=3 Linecode=4c_.06 Length=6.9897 Units=m
New Line.LINE2Cmpd_39 Bus1=2472 Bus2=2479 phases=3 Linecode=2c_.0225 Length=11.8228 Units=m
New Line.LINE2Cmpd_40 Bus1=2201 Bus2=2219 phases=3 Linecode=2c_.0225 Length=12.9803 Units=m
New Line.LINE2Cmpd_41 Bus1=2344 Bus2=2356 phases=3 Linecode=2c_.0225 Length=12.4233 Units=m
New Line.LINE2Cmpd_42 Bus1=2426 Bus2=2440 phases=3 Linecode=2c_.0225 Length=6.337 Units=m
New Line.LINE2Cmpd_43 Bus1=2351 Bus2=2364 phases=3 Linecode=2c_.0225 Length=12.2431 Units=m
New Line.LINE375 Bus1=373 Bus2=376 phases=3 Linecode=4c_70 Length=4.5939 Units=m
New Line.LINE392 Bus1=389 Bus2=393 phases=3 Linecode=4c_.06 Length=2.2794 Units=m
New Line.LINE396 Bus1=393 Bus2=397 phases=3 Linecode=2c_16 Length=9.0916 Units=m
New Line.LINE3116 Bus1=3111 Bus2=3117 phases=3 Linecode=2c_16 Length=5.5869 Units=m
New Line.LINE3117 Bus1=3111 Bus2=3118 phases=3 Linecode=2c_16 Length=5.5869 Units=m
New Line.LINE3195 Bus1=3191 Bus2=3196 phases=3 Linecode=2c_16 Length=13.0753 Units=m
New Line.LINE3203 Bus1=3199 Bus2=3204 phases=3 Linecode=25_SAC_XC Length=7.2987 Units=m
New Line.LINE3204 Bus1=3199 Bus2=3205 phases=3 Linecode=4c_.35 Length=7.5601 Units=m
New Line.LINE3208 Bus1=3203 Bus2=3209 phases=3 Linecode=25_SAC_XC Length=2.6236 Units=m
New Line.LINE3209 Bus1=3203 Bus2=3210 phases=3 Linecode=25_SAC_XC Length=2.6236 Units=m
New Line.LINE3236 Bus1=3233 Bus2=3237 phases=3 Linecode=2c_25 Length=2.5957 Units=m
New Line.LINE3237 Bus1=3233 Bus2=3238 phases=3 Linecode=2c_25 Length=2.5957 Units=m
New Line.LINE3248 Bus1=3246 Bus2=3249 phases=3 Linecode=2c_.0225 Length=6.0071 Units=m
New Line.LINE3249 Bus1=3246 Bus2=3250 phases=3 Linecode=2c_.0225 Length=6.0071 Units=m
New Line.LINE3329 Bus1=3325 Bus2=3330 phases=3 Linecode=2c_.04 Length=10.8747 Units=m
New Line.LINE3340 Bus1=3334 Bus2=3341 phases=3 Linecode=2c_.0225 Length=10.134 Units=m
New Line.LINE3378 Bus1=3373 Bus2=3379 phases=3 Linecode=2c_.04 Length=4.177 Units=m
New Line.LINE3379 Bus1=3373 Bus2=3380 phases=3 Linecode=2c_.04 Length=4.177 Units=m
New Line.LINE3390 Bus1=3385 Bus2=3391 phases=3 Linecode=2c_.0225 Length=2.9034 Units=m
New Line.LINE3391 Bus1=3385 Bus2=3392 phases=3 Linecode=2c_.0225 Length=2.9034 Units=m
New Line.LINE3398 Bus1=3395 Bus2=3399 phases=3 Linecode=2c_.0225 Length=3.8513 Units=m
New Line.LINE3447 Bus1=3443 Bus2=3448 phases=3 Linecode=4c_.06 Length=5.0725 Units=m
New Line.LINE3479 Bus1=3476 Bus2=3480 phases=3 Linecode=2c_.04 Length=2.7519 Units=m
New Line.LINE3480 Bus1=3476 Bus2=3481 phases=3 Linecode=2c_.04 Length=2.7519 Units=m
New Line.LINE3502 Bus1=3502 Bus2=3503 phases=3 Linecode=2c_.04 Length=8.1196 Units=m
New Line.LINE3503 Bus1=3502 Bus2=3504 phases=3 Linecode=2c_.04 Length=8.1196 Units=m
New Line.LINE3Cmpd_0 Bus1=3123 Bus2=3137 phases=3 Linecode=4c_.06 Length=3.5684 Units=m
New Line.LINE3Cmpd_1 Bus1=397 Bus2=3149 phases=3 Linecode=2c_16 Length=8.38241 Units=m
New Line.LINE3Cmpd_2 Bus1=3419 Bus2=3443 phases=3 Linecode=4c_.06 Length=8.28845 Units=m
New Line.LINE3Cmpd_3 Bus1=3262 Bus2=3280 phases=3 Linecode=4c_.06 Length=13.24214 Units=m
New Line.LINE3Cmpd_4 Bus1=3466 Bus2=3475 phases=3 Linecode=2c_.04 Length=8.8019 Units=m
New Line.LINE3Cmpd_5 Bus1=3280 Bus2=3325 phases=3 Linecode=4c_.06 Length=34.56723 Units=m
New Line.LINE3Cmpd_6 Bus1=3139 Bus2=3177 phases=3 Linecode=4c_.35 Length=2.02461 Units=m
New Line.LINE3Cmpd_7 Bus1=11 Bus2=365 phases=3 Linecode=4c_70 Length=60.842558 Units=m
New Line.LINE3Cmpd_8 Bus1=3205 Bus2=3246 phases=3 Linecode=2c_.0225 Length=5.33357 Units=m
New Line.LINE3Cmpd_9 Bus1=3196 Bus2=3255 phases=3 Linecode=2c_16 Length=9.996429 Units=m
New Line.LINE3Cmpd_10 Bus1=3488 Bus2=3502 phases=3 Linecode=2c_.04 Length=8.15925 Units=m
New Line.LINE3Cmpd_11 Bus1=3139 Bus2=3203 phases=3 Linecode=25_SAC_XC Length=5.46941 Units=m
New Line.LINE3Cmpd_12 Bus1=3276 Bus2=3307 phases=3 Linecode=2c_16 Length=7.58898 Units=m
New Line.LINE3Cmpd_13 Bus1=373 Bus2=3190 phases=3 Linecode=2c_16 Length=18.0255 Units=m
New Line.LINE3Cmpd_14 Bus1=3123 Bus2=3163 phases=3 Linecode=2c_16 Length=14.54087 Units=m
New Line.LINE3Cmpd_15 Bus1=3191 Bus2=3256 phases=3 Linecode=4c_.06 Length=39.21978 Units=m
New Line.LINE3Cmpd_16 Bus1=365 Bus2=373 phases=3 Linecode=4c_70 Length=19.5676 Units=m
New Line.LINE3Cmpd_17 Bus1=3137 Bus2=3191 phases=3 Linecode=4c_.06 Length=24.9551 Units=m
New Line.LINE3Cmpd_18 Bus1=3177 Bus2=3199 phases=3 Linecode=4c_.35 Length=9.76509 Units=m
New Line.LINE3Cmpd_19 Bus1=3419 Bus2=3478 phases=3 Linecode=2c_.0225 Length=15.62709 Units=m
New Line.LINE3Cmpd_20 Bus1=3399 Bus2=3412 phases=3 Linecode=2c_.0225 Length=6.5449 Units=m
New Line.LINE3Cmpd_21 Bus1=3399 Bus2=3442 phases=3 Linecode=2c_.0225 Length=9.62974 Units=m
New Line.LINE3Cmpd_22 Bus1=3276 Bus2=3299 phases=3 Linecode=2c_16 Length=6.50587 Units=m
New Line.LINE3Cmpd_23 Bus1=3341 Bus2=3359 phases=3 Linecode=2c_.0225 Length=5.1158 Units=m
New Line.LINE3Cmpd_24 Bus1=397 Bus2=3109 phases=3 Linecode=2c_16 Length=6.9817 Units=m
New Line.LINE3Cmpd_25 Bus1=377 Bus2=3111 phases=3 Linecode=2c_16 Length=7.94835 Units=m
New Line.LINE3Cmpd_26 Bus1=3325 Bus2=3334 phases=3 Linecode=4c_.06 Length=12.4756 Units=m
New Line.LINE3Cmpd_27 Bus1=3256 Bus2=3261 phases=3 Linecode=2c_16 Length=12.9546 Units=m
New Line.LINE3Cmpd_28 Bus1=3443 Bus2=3488 phases=3 Linecode=2c_.04 Length=9.582 Units=m
New Line.LINE3Cmpd_29 Bus1=377 Bus2=3106 phases=3 Linecode=4c_.35 Length=9.6374 Units=m
New Line.LINE3Cmpd_30 Bus1=3384 Bus2=3459 phases=3 Linecode=2c_.0225 Length=17.53028 Units=m
New Line.LINE3Cmpd_31 Bus1=3334 Bus2=3384 phases=3 Linecode=4c_.06 Length=1.721175 Units=m
New Line.LINE3Cmpd_32 Bus1=393 Bus2=3123 phases=3 Linecode=4c_.06 Length=16.4083 Units=m
New Line.LINE3Cmpd_33 Bus1=3196 Bus2=3233 phases=3 Linecode=2c_25 Length=8.08534 Units=m
New Line.LINE3Cmpd_34 Bus1=376 Bus2=389 phases=3 Linecode=4c_70 Length=10.2939 Units=m
New Line.LINE3Cmpd_35 Bus1=3330 Bus2=3373 phases=3 Linecode=2c_.04 Length=2.62955 Units=m
New Line.LINE3Cmpd_36 Bus1=3177 Bus2=3188 phases=3 Linecode=2c_.0225 Length=8.2325 Units=m
New Line.LINE3Cmpd_37 Bus1=3262 Bus2=3276 phases=3 Linecode=2c_16 Length=5.44312 Units=m
New Line.LINE3Cmpd_38 Bus1=3341 Bus2=3385 phases=3 Linecode=2c_.0225 Length=13.2756 Units=m
New Line.LINE3Cmpd_39 Bus1=3395 Bus2=3419 phases=3 Linecode=4c_.06 Length=6.74645 Units=m
New Line.LINE3Cmpd_40 Bus1=3330 Bus2=3342 phases=3 Linecode=2c_.0225 Length=7.7846 Units=m
New Line.LINE3Cmpd_41 Bus1=3120 Bus2=3139 phases=3 Linecode=4c_.35 Length=2.89606 Units=m
New Line.LINE3Cmpd_42 Bus1=365 Bus2=377 phases=3 Linecode=4c_.35 Length=7.20437 Units=m
New Line.LINE3Cmpd_43 Bus1=3448 Bus2=3466 phases=3 Linecode=2c_.04 Length=11.85052 Units=m
New Line.LINE3Cmpd_44 Bus1=3256 Bus2=3262 phases=3 Linecode=4c_.06 Length=14.6866 Units=m
New Line.LINE3Cmpd_45 Bus1=3106 Bus2=3120 phases=3 Linecode=4c_.35 Length=12.1716 Units=m
New Line.LINE3Cmpd_46 Bus1=3106 Bus2=3119 phases=3 Linecode=2c_16 Length=4.9173 Units=m
New Line.LINE3Cmpd_47 Bus1=3466 Bus2=3476 phases=3 Linecode=2c_.04 Length=0.84746 Units=m
New Line.LINE3Cmpd_48 Bus1=3280 Bus2=3288 phases=3 Linecode=2c_.0225 Length=12.4407 Units=m
New Line.LINE3Cmpd_49 Bus1=3120 Bus2=3132 phases=3 Linecode=2c_16 Length=6.8185 Units=m
New Line.LINE3Cmpd_50 Bus1=3384 Bus2=3395 phases=3 Linecode=4c_.06 Length=3.98242 Units=m
New Line.LINE3Cmpd_51 Bus1=3137 Bus2=3151 phases=3 Linecode=2c_16 Length=14.1107 Units=m
New Line.LINE3Cmpd_52 Bus1=376 Bus2=384 phases=3 Linecode=2c_16 Length=15.4044 Units=m
New Line.LINE3Cmpd_53 Bus1=3488 Bus2=3493 phases=3 Linecode=2c_.04 Length=9.1964 Units=m
New Line.LINE425 Bus1=425 Bus2=426 phases=3 Linecode=2c_16 Length=10.1369 Units=m
New Line.LINE451 Bus1=447 Bus2=452 phases=3 Linecode=2c_16 Length=5.4578 Units=m
New Line.LINE452 Bus1=447 Bus2=453 phases=3 Linecode=2c_16 Length=5.4578 Units=m
New Line.LINE473 Bus1=470 Bus2=474 phases=3 Linecode=2c_16 Length=7.0789 Units=m
New Line.LINE474 Bus1=470 Bus2=475 phases=3 Linecode=2c_16 Length=7.0789 Units=m
New Line.LINE4146 Bus1=4139 Bus2=4147 phases=3 Linecode=2c_16 Length=12.2672 Units=m
New Line.LINE4158 Bus1=4149 Bus2=4159 phases=3 Linecode=2c_16 Length=11.3628 Units=m
New Line.LINE4246 Bus1=4234 Bus2=4247 phases=3 Linecode=2c_25 Length=4.6779 Units=m
New Line.LINE4247 Bus1=4234 Bus2=4248 phases=3 Linecode=2c_25 Length=4.6779 Units=m
New Line.LINE4286 Bus1=4274 Bus2=4287 phases=3 Linecode=2c_16 Length=6.2806 Units=m
New Line.LINE4287 Bus1=4274 Bus2=4288 phases=3 Linecode=2c_16 Length=0.65928 Units=m
New Line.LINE4298 Bus1=4284 Bus2=4299 phases=3 Linecode=4c_70 Length=2.3625 Units=m
New Line.LINE4301 Bus1=4287 Bus2=4302 phases=3 Linecode=2c_16 Length=8.3858 Units=m
New Line.LINE4302 Bus1=4287 Bus2=4303 phases=3 Linecode=2c_16 Length=3.0457 Units=m
New Line.LINE4348 Bus1=4335 Bus2=4349 phases=3 Linecode=4c_.1 Length=3.0977 Units=m
New Line.LINE4383 Bus1=4372 Bus2=4384 phases=3 Linecode=2c_16 Length=10.1257 Units=m
New Line.LINE4396 Bus1=4382 Bus2=4397 phases=3 Linecode=2c_16 Length=4.8984 Units=m
New Line.LINE4446 Bus1=4434 Bus2=4447 phases=3 Linecode=2c_.0225 Length=4.5589 Units=m
New Line.LINE4447 Bus1=4434 Bus2=4448 phases=3 Linecode=2c_.0225 Length=4.5589 Units=m
New Line.LINE4515 Bus1=4509 Bus2=4516 phases=3 Linecode=4c_.1 Length=2.6435 Units=m
New Line.LINE4589 Bus1=4584 Bus2=4590 phases=3 Linecode=2c_.0225 Length=5.4565 Units=m
New Line.LINE4590 Bus1=4584 Bus2=4591 phases=3 Linecode=2c_.0225 Length=5.4565 Units=m
New Line.LINE4644 Bus1=4636 Bus2=4645 phases=3 Linecode=2c_16 Length=5.1742 Units=m
New Line.LINE4840 Bus1=4834 Bus2=4841 phases=3 Linecode=4c_.1 Length=7.903 Units=m
New Line.LINE4880 Bus1=4875 Bus2=4881 phases=3 Linecode=4c_.1 Length=6.8244 Units=m
New Line.LINE4886 Bus1=4881 Bus2=4887 phases=3 Linecode=4c_.1 Length=7.2792 Units=m
New Line.LINE41069 Bus1=41065 Bus2=41070 phases=3 Linecode=4c_.1 Length=9.7646 Units=m
New Line.LINE41075 Bus1=41070 Bus2=41076 phases=3 Linecode=4c_.1 Length=5.8051 Units=m
New Line.LINE41156 Bus1=41156 Bus2=41157 phases=3 Linecode=4c_.1 Length=2.8873 Units=m
New Line.LINE41186 Bus1=41184 Bus2=41187 phases=3 Linecode=2c_.022 Length=8.2247 Units=m
New Line.LINE4Cmpd_0 Bus1=480 Bus2=4116 phases=3 Linecode=4c_.06 Length=26.91034 Units=m
New Line.LINE4Cmpd_1 Bus1=11 Bus2=425 phases=3 Linecode=4c_70 Length=54.636444 Units=m
New Line.LINE4Cmpd_2 Bus1=4349 Bus2=4492 phases=3 Linecode=2c_.0225 Length=19.76837 Units=m
New Line.LINE4Cmpd_3 Bus1=484 Bus2=4101 phases=3 Linecode=4c_.35 Length=15.5199 Units=m
New Line.LINE4Cmpd_4 Bus1=444 Bus2=484 phases=3 Linecode=4c_.35 Length=35.85086 Units=m
New Line.LINE4Cmpd_5 Bus1=4225 Bus2=4382 phases=3 Linecode=2c_16 Length=14.505165 Units=m
New Line.LINE4Cmpd_6 Bus1=4372 Bus2=4585 phases=3 Linecode=4c_.06 Length=25.655544 Units=m
New Line.LINE4Cmpd_7 Bus1=4834 Bus2=4886 phases=3 Linecode=2c_.0225 Length=17.78346 Units=m
New Line.LINE4Cmpd_8 Bus1=4162 Bus2=4274 phases=3 Linecode=2c_16 Length=12.621488 Units=m
New Line.LINE4Cmpd_9 Bus1=4516 Bus2=4549 phases=3 Linecode=4c_.1 Length=10.2965 Units=m
New Line.LINE4Cmpd_10 Bus1=4216 Bus2=4468 phases=3 Linecode=2c_16 Length=20.147936 Units=m
New Line.LINE4Cmpd_11 Bus1=4977 Bus2=41036 phases=3 Linecode=4c_.06 Length=14.39261 Units=m
New Line.LINE4Cmpd_12 Bus1=4147 Bus2=4280 phases=3 Linecode=2c_16 Length=8.95362 Units=m
New Line.LINE4Cmpd_13 Bus1=4727 Bus2=4798 phases=3 Linecode=4c_.06 Length=13.72713 Units=m
New Line.LINE4Cmpd_14 Bus1=4349 Bus2=4459 phases=3 Linecode=4c_.1 Length=15.4385 Units=m
New Line.LINE4Cmpd_15 Bus1=484 Bus2=4153 phases=3 Linecode=2c_16 Length=10.45979 Units=m
New Line.LINE4Cmpd_16 Bus1=41157 Bus2=41166 phases=3 Linecode=4c_.1 Length=10.77682 Units=m
New Line.LINE4Cmpd_17 Bus1=425 Bus2=437 phases=3 Linecode=4c_70 Length=19.8543 Units=m
New Line.LINE4Cmpd_18 Bus1=4739 Bus2=4831 phases=3 Linecode=2c_16 Length=14.50815 Units=m
New Line.LINE4Cmpd_19 Bus1=4938 Bus2=41050 phases=3 Linecode=2c_.0225 Length=17.67265 Units=m
New Line.LINE4Cmpd_20 Bus1=4459 Bus2=4509 phases=3 Linecode=4c_.1 Length=14.4004 Units=m
New Line.LINE4Cmpd_21 Bus1=41100 Bus2=41144 phases=3 Linecode=2c_.0225 Length=13.15101 Units=m
New Line.LINE4Cmpd_22 Bus1=4549 Bus2=4799 phases=3 Linecode=4c_.1 Length=40.1683 Units=m
New Line.LINE4Cmpd_23 Bus1=4160 Bus2=4249 phases=3 Linecode=2c_25 Length=9.51421 Units=m
New Line.LINE4Cmpd_24 Bus1=4897 Bus2=4945 phases=3 Linecode=2c_16 Length=3.762047 Units=m
New Line.LINE4Cmpd_25 Bus1=426 Bus2=447 phases=3 Linecode=2c_16 Length=3.24638 Units=m
New Line.LINE4Cmpd_26 Bus1=4159 Bus2=4246 phases=3 Linecode=2c_16 Length=6.90775 Units=m
New Line.LINE4Cmpd_27 Bus1=444 Bus2=480 phases=3 Linecode=4c_70 Length=12.70951 Units=m
New Line.LINE4Cmpd_28 Bus1=4116 Bus2=4162 phases=3 Linecode=4c_.06 Length=23.34418 Units=m
New Line.LINE4Cmpd_29 Bus1=4384 Bus2=4522 phases=3 Linecode=2c_16 Length=4.726182 Units=m
New Line.LINE4Cmpd_30 Bus1=41210 Bus2=41221 phases=3 Linecode=4c_.1 Length=7.89909 Units=m
New Line.LINE4Cmpd_31 Bus1=4977 Bus2=41065 phases=3 Linecode=4c_.1 Length=20.67172 Units=m
New Line.LINE4Cmpd_32 Bus1=4380 Bus2=4411 phases=3 Linecode=2c_16 Length=4.5837 Units=m
New Line.LINE4Cmpd_33 Bus1=437 Bus2=450 phases=3 Linecode=2c_16 Length=8.62003 Units=m
New Line.LINE4Cmpd_34 Bus1=4636 Bus2=4783 phases=3 Linecode=2c_16 Length=12.11021 Units=m
New Line.LINE4Cmpd_35 Bus1=41221 Bus2=41230 phases=3 Linecode=2c_.0225 Length=16.58105 Units=m
New Line.LINE4Cmpd_36 Bus1=480 Bus2=493 phases=3 Linecode=4c_70 Length=11.54 Units=m
New Line.LINE4Cmpd_37 Bus1=4632 Bus2=4687 phases=3 Linecode=4c_.06 Length=4.78075 Units=m
New Line.LINE4Cmpd_38 Bus1=4739 Bus2=4802 phases=3 Linecode=2c_16 Length=3.24856 Units=m
New Line.LINE4Cmpd_39 Bus1=4335 Bus2=4366 phases=3 Linecode=2c_.0225 Length=15.8841 Units=m
New Line.LINE4Cmpd_40 Bus1=41134 Bus2=41150 phases=3 Linecode=4c_95_SAC_XC Length=52.2331 Units=m
New Line.LINE4Cmpd_41 Bus1=4898 Bus2=4921 phases=3 Linecode=4c_.1 Length=11.4748 Units=m
New Line.LINE4Cmpd_42 Bus1=41087 Bus2=41134 phases=3 Linecode=4c_95_SAC_XC Length=176.46516 Units=m
New Line.LINE4Cmpd_43 Bus1=41036 Bus2=41087 phases=3 Linecode=3c_95_SAC_ASN Length=66.79602 Units=m
New Line.LINE4Cmpd_44 Bus1=4841 Bus2=4875 phases=3 Linecode=4c_.1 Length=10.09443 Units=m
New Line.LINE4Cmpd_45 Bus1=4798 Bus2=4897 phases=3 Linecode=2c_16 Length=10.10608 Units=m
New Line.LINE4Cmpd_46 Bus1=4605 Bus2=4631 phases=3 Linecode=2c_16 Length=9.25759 Units=m
New Line.LINE4Cmpd_47 Bus1=4160 Bus2=4234 phases=3 Linecode=2c_25 Length=4.20504 Units=m
New Line.LINE4Cmpd_48 Bus1=4921 Bus2=4938 phases=3 Linecode=4c_.1 Length=6.0046 Units=m
New Line.LINE4Cmpd_49 Bus1=493 Bus2=4160 phases=3 Linecode=2c_25 Length=10.25682 Units=m
New Line.LINE4Cmpd_50 Bus1=4632 Bus2=4739 phases=3 Linecode=2c_16 Length=10.90506 Units=m
New Line.LINE4Cmpd_51 Bus1=41166 Bus2=41184 phases=3 Linecode=4c_.1 Length=12.11178 Units=m
New Line.LINE4Cmpd_52 Bus1=4116 Bus2=4174 phases=3 Linecode=2c_16 Length=15.80622 Units=m
New Line.LINE4Cmpd_53 Bus1=4101 Bus2=4181 phases=3 Linecode=2c_16 Length=13.21182 Units=m
New Line.LINE4Cmpd_54 Bus1=4631 Bus2=4692 phases=3 Linecode=2c_16 Length=5.251367 Units=m
New Line.LINE4Cmpd_55 Bus1=41100 Bus2=41156 phases=3 Linecode=4c_.1 Length=9.99956 Units=m
New Line.LINE4Cmpd_56 Bus1=4687 Bus2=4727 phases=3 Linecode=4c_.06 Length=10.95893 Units=m
New Line.LINE4Cmpd_57 Bus1=4258 Bus2=4434 phases=3 Linecode=2c_.0225 Length=26.07368 Units=m
New Line.LINE4Cmpd_58 Bus1=4887 Bus2=41000 phases=3 Linecode=2c_.0225 Length=13.06953 Units=m
New Line.LINE4Cmpd_59 Bus1=4481 Bus2=4520 phases=3 Linecode=2c_.0225 Length=9.174508 Units=m
New Line.LINE4Cmpd_60 Bus1=4881 Bus2=4960 phases=3 Linecode=2c_.0225 Length=18.548293 Units=m
New Line.LINE4Cmpd_61 Bus1=4101 Bus2=4139 phases=3 Linecode=4c_.35 Length=16.564 Units=m
New Line.LINE4Cmpd_62 Bus1=4153 Bus2=4190 phases=3 Linecode=2c_16 Length=5.84477 Units=m
New Line.LINE4Cmpd_63 Bus1=4897 Bus2=41022 phases=3 Linecode=2c_16 Length=11.42522 Units=m
New Line.LINE4Cmpd_64 Bus1=4153 Bus2=4292 phases=3 Linecode=2c_16 Length=8.868836 Units=m
New Line.LINE4Cmpd_65 Bus1=41184 Bus2=41199 phases=3 Linecode=4c_.1 Length=12.1851 Units=m
New Line.LINE4Cmpd_66 Bus1=4898 Bus2=4989 phases=3 Linecode=2c_.0225 Length=10.59284 Units=m
New Line.LINE4Cmpd_67 Bus1=4631 Bus2=4679 phases=3 Linecode=2c_16 Length=6.00783 Units=m
New Line.LINE4Cmpd_68 Bus1=4231 Bus2=4380 phases=3 Linecode=2c_16 Length=15.53551 Units=m
New Line.LINE4Cmpd_69 Bus1=4291 Bus2=4372 phases=3 Linecode=4c_.06 Length=16.9026 Units=m
New Line.LINE4Cmpd_70 Bus1=4585 Bus2=4636 phases=3 Linecode=2c_16 Length=5.13646 Units=m
New Line.LINE4Cmpd_71 Bus1=4481 Bus2=4554 phases=3 Linecode=2c_.0225 Length=5.05037 Units=m
New Line.LINE4Cmpd_72 Bus1=4459 Bus2=4481 phases=3 Linecode=2c_.0225 Length=10.690048 Units=m
New Line.LINE4Cmpd_73 Bus1=4516 Bus2=4584 phases=3 Linecode=2c_.0225 Length=10.31015 Units=m
New Line.LINE4Cmpd_74 Bus1=4291 Bus2=4330 phases=3 Linecode=2c_16 Length=10.22234 Units=m
New Line.LINE4Cmpd_75 Bus1=4225 Bus2=4291 phases=3 Linecode=4c_.06 Length=16.0809 Units=m
New Line.LINE4Cmpd_76 Bus1=4380 Bus2=4473 phases=3 Linecode=2c_16 Length=8.663245 Units=m
New Line.LINE4Cmpd_77 Bus1=4149 Bus2=4231 phases=3 Linecode=4c_70 Length=15.8569 Units=m
New Line.LINE4Cmpd_78 Bus1=4139 Bus2=4216 phases=3 Linecode=4c_.35 Length=13.77928 Units=m
New Line.LINE4Cmpd_79 Bus1=4330 Bus2=4484 phases=3 Linecode=2c_16 Length=7.00036 Units=m
New Line.LINE4Cmpd_80 Bus1=41076 Bus2=41100 phases=3 Linecode=4c_.1 Length=7.574 Units=m
New Line.LINE4Cmpd_81 Bus1=4727 Bus2=4748 phases=3 Linecode=2c_16 Length=12.2605 Units=m
New Line.LINE4Cmpd_82 Bus1=41166 Bus2=41172 phases=3 Linecode=2c_.0225 Length=13.332 Units=m
New Line.LINE4Cmpd_83 Bus1=4181 Bus2=4294 phases=3 Linecode=2c_16 Length=8.25 Units=m
New Line.LINE4Cmpd_84 Bus1=41070 Bus2=41085 phases=3 Linecode=2c_.0225 Length=10.1473 Units=m
New Line.LINE4Cmpd_85 Bus1=4799 Bus2=4816 phases=3 Linecode=2c_.0225 Length=14.4331 Units=m
New Line.LINE4Cmpd_86 Bus1=4162 Bus2=4225 phases=3 Linecode=4c_.06 Length=10.7353 Units=m
New Line.LINE4Cmpd_87 Bus1=4299 Bus2=4335 phases=3 Linecode=4c_.1 Length=10.471 Units=m
New Line.LINE4Cmpd_88 Bus1=4841 Bus2=4854 phases=3 Linecode=2c_.0225 Length=16.7391 Units=m
New Line.LINE4Cmpd_89 Bus1=426 Bus2=432 phases=3 Linecode=2c_16 Length=6.8569 Units=m
New Line.LINE4Cmpd_90 Bus1=4384 Bus2=4416 phases=3 Linecode=2c_16 Length=7.5079 Units=m
New Line.LINE4Cmpd_91 Bus1=4549 Bus2=4622 phases=3 Linecode=2c_.0225 Length=25.24848 Units=m
New Line.LINE4Cmpd_92 Bus1=450 Bus2=461 phases=3 Linecode=2c_16 Length=8.6888 Units=m
New Line.LINE4Cmpd_93 Bus1=4284 Bus2=4311 phases=3 Linecode=2c_.0225 Length=20.5954 Units=m
New Line.LINE4Cmpd_94 Bus1=437 Bus2=444 phases=3 Linecode=4c_70 Length=13.2286 Units=m
New Line.LINE4Cmpd_95 Bus1=4330 Bus2=4358 phases=3 Linecode=2c_16 Length=6.4466 Units=m
New Line.LINE4Cmpd_96 Bus1=450 Bus2=470 phases=3 Linecode=2c_16 Length=2.53242 Units=m
New Line.LINE4Cmpd_97 Bus1=41187 Bus2=41212 phases=3 Linecode=2c_.022 Length=7.2967 Units=m
New Line.LINE4Cmpd_98 Bus1=4938 Bus2=4977 phases=3 Linecode=4c_.1 Length=16.49433 Units=m
New Line.LINE4Cmpd_99 Bus1=41156 Bus2=41161 phases=3 Linecode=2c_.0225 Length=13.6364 Units=m
New Line.LINE4Cmpd_100 Bus1=4258 Bus2=4284 phases=3 Linecode=4c_70 Length=3.4968 Units=m
New Line.LINE4Cmpd_101 Bus1=4799 Bus2=4820 phases=3 Linecode=4c_.1 Length=10.9981 Units=m
New Line.LINE4Cmpd_102 Bus1=4159 Bus2=4184 phases=3 Linecode=2c_16 Length=4.9572 Units=m
New Line.LINE4Cmpd_103 Bus1=493 Bus2=4149 phases=3 Linecode=4c_70 Length=21.0089 Units=m
New Line.LINE4Cmpd_104 Bus1=4875 Bus2=4889 phases=3 Linecode=2c_.0225 Length=16.5615 Units=m
New Line.LINE4Cmpd_105 Bus1=4687 Bus2=4708 phases=3 Linecode=2c_16 Length=12.069 Units=m
New Line.LINE4Cmpd_106 Bus1=4921 Bus2=4939 phases=3 Linecode=2c_.0225 Length=12.5136 Units=m
New Line.LINE4Cmpd_107 Bus1=41210 Bus2=41216 phases=3 Linecode=2c_.0225 Length=17.4098 Units=m
New Line.LINE4Cmpd_108 Bus1=41199 Bus2=41210 phases=3 Linecode=4c_.1 Length=6.4832 Units=m
New Line.LINE4Cmpd_109 Bus1=4509 Bus2=4527 phases=3 Linecode=2c_.0225 Length=12.8795 Units=m
New Line.LINE4Cmpd_110 Bus1=4820 Bus2=4833 phases=3 Linecode=2c_.0225 Length=16.5379 Units=m
New Line.LINE4Cmpd_111 Bus1=4147 Bus2=4167 phases=3 Linecode=2c_16 Length=6.2108 Units=m
New Line.LINE4Cmpd_112 Bus1=41199 Bus2=41207 phases=3 Linecode=2c_.0225 Length=11.4721 Units=m
New Line.LINE4Cmpd_113 Bus1=4605 Bus2=4632 phases=3 Linecode=4c_.06 Length=8.25821 Units=m
New Line.LINE4Cmpd_114 Bus1=4585 Bus2=4605 phases=3 Linecode=4c_.06 Length=12.2941 Units=m
New Line.LINE4Cmpd_115 Bus1=4382 Bus2=4414 phases=3 Linecode=2c_16 Length=9.9679 Units=m
New Line.LINE4Cmpd_116 Bus1=4231 Bus2=4258 phases=3 Linecode=4c_70 Length=3.93754 Units=m
New Line.LINE4Cmpd_117 Bus1=41187 Bus2=41194 phases=3 Linecode=2c_.0225 Length=10.9111 Units=m
New Line.LINE4Cmpd_118 Bus1=41134 Bus2=41147 phases=3 Linecode=4c_95_SAC_XC Length=17.7683 Units=m
New Line.LINE4Cmpd_119 Bus1=4820 Bus2=4834 phases=3 Linecode=4c_.1 Length=3.24018 Units=m
New Line.LINE4Cmpd_120 Bus1=41065 Bus2=41078 phases=3 Linecode=2c_.0225 Length=10.411 Units=m
New Line.LINE4Cmpd_121 Bus1=4181 Bus2=4206 phases=3 Linecode=2c_16 Length=6.0979 Units=m
New Line.LINE4Cmpd_122 Bus1=41157 Bus2=41163 phases=3 Linecode=2c_.0225 Length=13.8329 Units=m
New Line.LINE4Cmpd_123 Bus1=41076 Bus2=41091 phases=3 Linecode=2c_.0225 Length=10.4884 Units=m
New Line.LINE4Cmpd_124 Bus1=4887 Bus2=4898 phases=3 Linecode=4c_.1 Length=5.63356 Units=m
